LAMMPS (11 May 2018)
units real
atom_style full

bond_style table linear 301
pair_style polir/vdw 6.0

neigh_modify every 1 delay 1
neighbor 0.3 bin

read_data "125wat.data"
  orthogonal box = (0 0 0) to (7.5 7.5 7.5)
  reading atoms ...
  375 atoms
  scanning bonds ...
  reading bonds ...
  250 bonds

# No non-bonded interactions
pair_coeff 1 1 7.61978e-09 -4.07504e-07 5.80846e-06 -0.00292171
pair_coeff 1 2 0.0 0.0 0.0 0.0
pair_coeff 2 2 0.0 0.0 0.0 0.0

bond_coeff 1 PS_bond_potential.table POLIR
  Should only be flagged at inflection points (../bond_table.cpp:380)

timestep 1.0

variable temp equal 300.0
velocity all create 300 1091823 rot yes dist gaussian
fix f1 all nvt temp 300 300 1000.0

thermo 10
thermo_style custom step temp press pe ebond ke

dump d1 all dcd 10 dump.dcd
dump_modify d1 unwrap yes

run 1000
  update every 1 steps, delay 1 steps, check yes
Step Temp Press PotEng E_bond KinEng
0          300   -232393.29      37.5624    37.696149    334.44689
Averages over the last 51 of 101 rows, steps 500 to 1000:
Temp Press PotEng E_bond KinEng
286.693 -3693.26 85.4575 89.5455 319.612
Loop time of 5.08356 on 4 procs for 1000 steps with 375 atoms

quit
